  
       XFOIL         Version 6.99
  
 Calculated polar for: NACA 0006                                       
  
 1 1 Reynolds number fixed          Mach number fixed         
  
 xtrf =   1.000 (top)        1.000 (bottom)  
 Mach =   0.000     Re =     0.000 e 6     Ncrit =   9.000
  
   alpha    CL        CD       CDp       CM     Top_Xtr  Bot_Xtr
  ------ -------- --------- --------- -------- -------- --------
  -4.000  -0.4604   0.00000  -0.00079   0.0023   0.0000   0.0000
  -3.000  -0.3454   0.00000  -0.00073   0.0018   0.0000   0.0000
  -2.000  -0.2303   0.00000  -0.00069   0.0012   0.0000   0.0000
  -1.000  -0.1152   0.00000  -0.00067   0.0006   0.0000   0.0000
   0.000   0.0000   0.00000  -0.00066  -0.0000   0.0000   0.0000
   1.000   0.1153   0.00000  -0.00067  -0.0006   0.0000   0.0000
   2.000   0.2304   0.00000  -0.00069  -0.0012   0.0000   0.0000
   3.000   0.3455   0.00000  -0.00073  -0.0018   0.0000   0.0000
   4.000   0.4605   0.00000  -0.00079  -0.0024   0.0000   0.0000
   5.000   0.5754   0.00000  -0.00086  -0.0030   0.0000   0.0000
   6.000   0.6901   0.00000  -0.00095  -0.0035   0.0000   0.0000
   7.000   0.8046   0.00000  -0.00106  -0.0041   0.0000   0.0000
   8.000   0.9189   0.00000  -0.00117  -0.0047   0.0000   0.0000
   9.000   1.0328   0.00000  -0.00131  -0.0053   0.0000   0.0000
  10.000   1.1465   0.00000  -0.00146  -0.0058   0.0000   0.0000
