  
       XFOIL         Version 6.99
  
 Calculated polar for: NACA 2215                                       
  
 1 1 Reynolds number fixed          Mach number fixed         
  
 xtrf =   1.000 (top)        1.000 (bottom)  
 Mach =   0.000     Re =     0.000 e 6     Ncrit =   9.000
  
   alpha    CL        CD       CDp       CM     Top_Xtr  Bot_Xtr
  ------ -------- --------- --------- -------- -------- --------
  -4.000  -0.2659   0.00000  -0.00140  -0.0305   0.0000   0.0000
  -3.000  -0.1422   0.00000  -0.00140  -0.0322   0.0000   0.0000
  -2.000  -0.0185   0.00000  -0.00139  -0.0341   0.0000   0.0000
  -1.000   0.1053   0.00000  -0.00138  -0.0359   0.0000   0.0000
   0.000   0.2290   0.00000  -0.00138  -0.0378   0.0000   0.0000
   1.000   0.3526   0.00000  -0.00138  -0.0398   0.0000   0.0000
   2.000   0.4762   0.00000  -0.00138  -0.0417   0.0000   0.0000
   3.000   0.5995   0.00000  -0.00139  -0.0438   0.0000   0.0000
   4.000   0.7228   0.00000  -0.00139  -0.0458   0.0000   0.0000
   5.000   0.8457   0.00000  -0.00140  -0.0479   0.0000   0.0000
   6.000   0.9685   0.00000  -0.00141  -0.0500   0.0000   0.0000
   7.000   1.0909   0.00000  -0.00142  -0.0521   0.0000   0.0000
   8.000   1.2130   0.00000  -0.00143  -0.0542   0.0000   0.0000
   9.000   1.3348   0.00000  -0.00145  -0.0564   0.0000   0.0000
  10.000   1.4561   0.00000  -0.00147  -0.0586   0.0000   0.0000
  11.000   1.5770   0.00000  -0.00149  -0.0608   0.0000   0.0000
  12.000   1.6974   0.00000  -0.00151  -0.0629   0.0000   0.0000
  13.000   1.8173   0.00000  -0.00153  -0.0652   0.0000   0.0000
  14.000   1.9366   0.00000  -0.00156  -0.0674   0.0000   0.0000
  15.000   2.0554   0.00000  -0.00158  -0.0696   0.0000   0.0000
  16.000   2.1735   0.00000  -0.00161  -0.0718   0.0000   0.0000
  17.000   2.2910   0.00000  -0.00164  -0.0740   0.0000   0.0000
  18.000   2.4078   0.00000  -0.00167  -0.0762   0.0000   0.0000
  19.000   2.5238   0.00000  -0.00170  -0.0784   0.0000   0.0000
  20.000   2.6391   0.00000  -0.00173  -0.0806   0.0000   0.0000
