  
       XFOIL         Version 6.99
  
 Calculated polar for: NACA 3308                                       
  
 1 1 Reynolds number fixed          Mach number fixed         
  
 xtrf =   1.000 (top)        1.000 (bottom)  
 Mach =   0.000     Re =     0.000 e 6     Ncrit =   9.000
  
   alpha    CL        CD       CDp       CM     Top_Xtr  Bot_Xtr
  ------ -------- --------- --------- -------- -------- --------
 -10.000  -0.8277   0.00000  -0.00112  -0.0616   0.0000   0.0000
  -9.000  -0.7111   0.00000  -0.00106  -0.0621   0.0000   0.0000
  -8.000  -0.5944   0.00000  -0.00100  -0.0627   0.0000   0.0000
  -7.000  -0.4775   0.00000  -0.00095  -0.0634   0.0000   0.0000
  -6.000  -0.3604   0.00000  -0.00090  -0.0640   0.0000   0.0000
  -5.000  -0.2433   0.00000  -0.00086  -0.0647   0.0000   0.0000
  -4.000  -0.1260   0.00000  -0.00083  -0.0655   0.0000   0.0000
  -3.000  -0.0088   0.00000  -0.00080  -0.0663   0.0000   0.0000
  -2.000   0.1085   0.00000  -0.00077  -0.0671   0.0000   0.0000
  -1.000   0.2257   0.00000  -0.00076  -0.0679   0.0000   0.0000
   0.000   0.3429   0.00000  -0.00075  -0.0688   0.0000   0.0000
   1.000   0.4599   0.00000  -0.00074  -0.0698   0.0000   0.0000
   2.000   0.5768   0.00000  -0.00075  -0.0707   0.0000   0.0000
   3.000   0.6935   0.00000  -0.00076  -0.0717   0.0000   0.0000
   4.000   0.8101   0.00000  -0.00078  -0.0727   0.0000   0.0000
   5.000   0.9263   0.00000  -0.00080  -0.0738   0.0000   0.0000
   6.000   1.0423   0.00000  -0.00084  -0.0749   0.0000   0.0000
   7.000   1.1580   0.00000  -0.00088  -0.0760   0.0000   0.0000
   8.000   1.2733   0.00000  -0.00092  -0.0771   0.0000   0.0000
   9.000   1.3882   0.00000  -0.00098  -0.0782   0.0000   0.0000
  10.000   1.5027   0.00000  -0.00104  -0.0794   0.0000   0.0000
  11.000   1.6167   0.00000  -0.00111  -0.0806   0.0000   0.0000
  12.000   1.7303   0.00000  -0.00119  -0.0818   0.0000   0.0000
  13.000   1.8433   0.00000  -0.00127  -0.0831   0.0000   0.0000
  14.000   1.9558   0.00000  -0.00136  -0.0843   0.0000   0.0000
  15.000   2.0677   0.00000  -0.00146  -0.0856   0.0000   0.0000
  16.000   2.1789   0.00000  -0.00156  -0.0869   0.0000   0.0000
  17.000   2.2895   0.00000  -0.00167  -0.0882   0.0000   0.0000
  18.000   2.3994   0.00000  -0.00179  -0.0895   0.0000   0.0000
  19.000   2.5086   0.00000  -0.00191  -0.0908   0.0000   0.0000
  20.000   2.6170   0.00000  -0.00204  -0.0921   0.0000   0.0000
